578

 Pt          -21.692000           -1.972000            0.000000
 Pt          -21.692000            0.000000           -1.972000
 Pt          -23.664000            0.000000            0.000000
 Pt          -21.692000            0.000000            1.972000
 Pt          -21.692000            1.972000            0.000000
 Pt          -17.748000           -5.916000            0.000000
 Pt          -19.720000           -1.972000           -1.972000
 Pt          -17.748000           -3.944000           -1.972000
 Pt          -17.748000           -1.972000           -3.944000
 Pt          -19.720000           -3.944000            0.000000
 Pt          -19.720000           -1.972000            1.972000
 Pt          -17.748000           -3.944000            1.972000
 Pt          -17.748000           -1.972000            3.944000
 Pt          -17.748000            0.000000           -5.916000
 Pt          -19.720000            0.000000           -3.944000
 Pt          -19.720000            1.972000           -1.972000
 Pt          -17.748000            1.972000           -3.944000
 Pt          -19.720000            1.972000            1.972000
 Pt          -19.720000            0.000000            3.944000
 Pt          -17.748000            0.000000            5.916000
 Pt          -17.748000            1.972000            3.944000
 Pt          -17.748000            3.944000           -1.972000
 Pt          -19.720000            3.944000            0.000000
 Pt          -17.748000            3.944000            1.972000
 Pt          -17.748000            5.916000            0.000000
 Pt          -13.804000           -9.860000            0.000000
 Pt          -15.776000           -5.916000           -1.972000
 Pt          -13.804000           -7.888000           -1.972000
 Pt          -13.804000           -5.916000           -3.944000
 Pt          -15.776000           -7.888000            0.000000
 Pt          -15.776000           -5.916000            1.972000
 Pt          -13.804000           -7.888000            1.972000
 Pt          -13.804000           -5.916000            3.944000
 Pt          -15.776000           -1.972000           -5.916000
 Pt          -13.804000           -3.944000           -5.916000
 Pt          -13.804000           -1.972000           -7.888000
 Pt          -15.776000           -3.944000           -3.944000
 Pt          -15.776000           -3.944000            3.944000
 Pt          -15.776000           -1.972000            5.916000
 Pt          -13.804000           -3.944000            5.916000
 Pt          -13.804000           -1.972000            7.888000
 Pt          -13.804000            0.000000           -9.860000
 Pt          -15.776000            0.000000           -7.888000
 Pt          -15.776000            1.972000           -5.916000
 Pt          -13.804000            1.972000           -7.888000
 Pt          -15.776000            1.972000            5.916000
 Pt          -15.776000            0.000000            7.888000
 Pt          -13.804000            0.000000            9.860000
 Pt          -13.804000            1.972000            7.888000
 Pt          -13.804000            3.944000           -5.916000
 Pt          -15.776000            3.944000           -3.944000
 Pt          -15.776000            5.916000           -1.972000
 Pt          -13.804000            5.916000           -3.944000
 Pt          -15.776000            5.916000            1.972000
 Pt          -15.776000            3.944000            3.944000
 Pt          -13.804000            3.944000            5.916000
 Pt          -13.804000            5.916000            3.944000
 Pt          -13.804000            7.888000           -1.972000
 Pt          -15.776000            7.888000            0.000000
 Pt          -13.804000            7.888000            1.972000
 Pt          -13.804000            9.860000            0.000000
 Pt           -9.860000          -13.804000            0.000000
 Pt          -11.832000           -9.860000           -1.972000
 Pt           -9.860000          -11.832000           -1.972000
 Pt           -9.860000           -9.860000           -3.944000
 Pt          -11.832000          -11.832000            0.000000
 Pt          -11.832000           -9.860000            1.972000
 Pt           -9.860000          -11.832000            1.972000
 Pt           -9.860000           -9.860000            3.944000
 Pt          -11.832000           -5.916000           -5.916000
 Pt           -9.860000           -7.888000           -5.916000
 Pt           -9.860000           -5.916000           -7.888000
 Pt          -11.832000           -7.888000           -3.944000
 Pt          -11.832000           -7.888000            3.944000
 Pt          -11.832000           -5.916000            5.916000
 Pt           -9.860000           -7.888000            5.916000
 Pt           -9.860000           -5.916000            7.888000
 Pt          -11.832000           -1.972000           -9.860000
 Pt           -9.860000           -3.944000           -9.860000
 Pt           -9.860000           -1.972000          -11.832000
 Pt          -11.832000           -3.944000           -7.888000
 Pt          -11.832000           -3.944000            7.888000
 Pt          -11.832000           -1.972000            9.860000
 Pt           -9.860000           -3.944000            9.860000
 Pt           -9.860000           -1.972000           11.832000
 Pt           -9.860000            0.000000          -13.804000
 Pt          -11.832000            0.000000          -11.832000
 Pt          -11.832000            1.972000           -9.860000
 Pt           -9.860000            1.972000          -11.832000
 Pt          -11.832000            1.972000            9.860000
 Pt          -11.832000            0.000000           11.832000
 Pt           -9.860000            0.000000           13.804000
 Pt           -9.860000            1.972000           11.832000
 Pt           -9.860000            3.944000           -9.860000
 Pt          -11.832000            3.944000           -7.888000
 Pt          -11.832000            5.916000           -5.916000
 Pt           -9.860000            5.916000           -7.888000
 Pt          -11.832000            5.916000            5.916000
 Pt          -11.832000            3.944000            7.888000
 Pt           -9.860000            3.944000            9.860000
 Pt           -9.860000            5.916000            7.888000
 Pt           -9.860000            7.888000           -5.916000
 Pt          -11.832000            7.888000           -3.944000
 Pt          -11.832000            9.860000           -1.972000
 Pt           -9.860000            9.860000           -3.944000
 Pt          -11.832000            9.860000            1.972000
 Pt          -11.832000            7.888000            3.944000
 Pt           -9.860000            7.888000            5.916000
 Pt           -9.860000            9.860000            3.944000
 Pt           -9.860000           11.832000           -1.972000
 Pt          -11.832000           11.832000            0.000000
 Pt           -9.860000           11.832000            1.972000
 Pt           -9.860000           13.804000            0.000000
 Pt           -5.916000          -17.748000            0.000000
 Pt           -7.888000          -13.804000           -1.972000
 Pt           -5.916000          -15.776000           -1.972000
 Pt           -5.916000          -13.804000           -3.944000
 Pt           -7.888000          -15.776000            0.000000
 Pt           -7.888000          -13.804000            1.972000
 Pt           -5.916000          -15.776000            1.972000
 Pt           -5.916000          -13.804000            3.944000
 Pt           -7.888000           -9.860000           -5.916000
 Pt           -5.916000          -11.832000           -5.916000
 Pt           -5.916000           -9.860000           -7.888000
 Pt           -7.888000          -11.832000           -3.944000
 Pt           -7.888000          -11.832000            3.944000
 Pt           -7.888000           -9.860000            5.916000
 Pt           -5.916000          -11.832000            5.916000
 Pt           -5.916000           -9.860000            7.888000
 Pt           -7.888000           -5.916000           -9.860000
 Pt           -5.916000           -7.888000           -9.860000
 Pt           -5.916000           -5.916000          -11.832000
 Pt           -7.888000           -7.888000           -7.888000
 Pt           -7.888000           -7.888000            7.888000
 Pt           -7.888000           -5.916000            9.860000
 Pt           -5.916000           -7.888000            9.860000
 Pt           -5.916000           -5.916000           11.832000
 Pt           -7.888000           -1.972000          -13.804000
 Pt           -5.916000           -3.944000          -13.804000
 Pt           -5.916000           -1.972000          -15.776000
 Pt           -7.888000           -3.944000          -11.832000
 Pt           -7.888000           -3.944000           11.832000
 Pt           -7.888000           -1.972000           13.804000
 Pt           -5.916000           -3.944000           13.804000
 Pt           -5.916000           -1.972000           15.776000
 Pt           -5.916000            0.000000          -17.748000
 Pt           -7.888000            0.000000          -15.776000
 Pt           -7.888000            1.972000          -13.804000
 Pt           -5.916000            1.972000          -15.776000
 Pt           -7.888000            1.972000           13.804000
 Pt           -7.888000            0.000000           15.776000
 Pt           -5.916000            0.000000           17.748000
 Pt           -5.916000            1.972000           15.776000
 Pt           -5.916000            3.944000          -13.804000
 Pt           -7.888000            3.944000          -11.832000
 Pt           -7.888000            5.916000           -9.860000
 Pt           -5.916000            5.916000          -11.832000
 Pt           -7.888000            5.916000            9.860000
 Pt           -7.888000            3.944000           11.832000
 Pt           -5.916000            3.944000           13.804000
 Pt           -5.916000            5.916000           11.832000
 Pt           -5.916000            7.888000           -9.860000
 Pt           -7.888000            7.888000           -7.888000
 Pt           -7.888000            9.860000           -5.916000
 Pt           -5.916000            9.860000           -7.888000
 Pt           -7.888000            9.860000            5.916000
 Pt           -7.888000            7.888000            7.888000
 Pt           -5.916000            7.888000            9.860000
 Pt           -5.916000            9.860000            7.888000
 Pt           -5.916000           11.832000           -5.916000
 Pt           -7.888000           11.832000           -3.944000
 Pt           -7.888000           13.804000           -1.972000
 Pt           -5.916000           13.804000           -3.944000
 Pt           -7.888000           13.804000            1.972000
 Pt           -7.888000           11.832000            3.944000
 Pt           -5.916000           11.832000            5.916000
 Pt           -5.916000           13.804000            3.944000
 Pt           -5.916000           15.776000           -1.972000
 Pt           -7.888000           15.776000            0.000000
 Pt           -5.916000           15.776000            1.972000
 Pt           -5.916000           17.748000            0.000000
 Pt           -1.972000          -21.692000            0.000000
 Pt           -3.944000          -17.748000           -1.972000
 Pt           -1.972000          -19.720000           -1.972000
 Pt           -1.972000          -17.748000           -3.944000
 Pt           -3.944000          -19.720000            0.000000
 Pt           -3.944000          -17.748000            1.972000
 Pt           -1.972000          -19.720000            1.972000
 Pt           -1.972000          -17.748000            3.944000
 Pt           -3.944000          -13.804000           -5.916000
 Pt           -1.972000          -15.776000           -5.916000
 Pt           -1.972000          -13.804000           -7.888000
 Pt           -3.944000          -15.776000           -3.944000
 Pt           -3.944000          -15.776000            3.944000
 Pt           -3.944000          -13.804000            5.916000
 Pt           -1.972000          -15.776000            5.916000
 Pt           -1.972000          -13.804000            7.888000
 Pt           -3.944000           -9.860000           -9.860000
 Pt           -1.972000          -11.832000           -9.860000
 Pt           -1.972000           -9.860000          -11.832000
 Pt           -3.944000          -11.832000           -7.888000
 Pt           -3.944000          -11.832000            7.888000
 Pt           -3.944000           -9.860000            9.860000
 Pt           -1.972000          -11.832000            9.860000
 Pt           -1.972000           -9.860000           11.832000
 Pt           -3.944000           -5.916000          -13.804000
 Pt           -1.972000           -7.888000          -13.804000
 Pt           -1.972000           -5.916000          -15.776000
 Pt           -3.944000           -7.888000          -11.832000
 Pt           -3.944000           -7.888000           11.832000
 Pt           -3.944000           -5.916000           13.804000
 Pt           -1.972000           -7.888000           13.804000
 Pt           -1.972000           -5.916000           15.776000
 Pt           -3.944000           -1.972000          -17.748000
 Pt           -1.972000           -3.944000          -17.748000
 Pt           -1.972000           -1.972000          -19.720000
 Pt           -3.944000           -3.944000          -15.776000
 Pt           -3.944000           -3.944000           15.776000
 Pt           -3.944000           -1.972000           17.748000
 Pt           -1.972000           -3.944000           17.748000
 Pt           -1.972000           -1.972000           19.720000
 Pt           -1.972000            0.000000          -21.692000
 Pt           -3.944000            0.000000          -19.720000
 Pt           -3.944000            1.972000          -17.748000
 Pt           -1.972000            1.972000          -19.720000
 Pt           -3.944000            1.972000           17.748000
 Pt           -3.944000            0.000000           19.720000
 Pt           -1.972000            0.000000           21.692000
 Pt           -1.972000            1.972000           19.720000
 Pt           -1.972000            3.944000          -17.748000
 Pt           -3.944000            3.944000          -15.776000
 Pt           -3.944000            5.916000          -13.804000
 Pt           -1.972000            5.916000          -15.776000
 Pt           -3.944000            5.916000           13.804000
 Pt           -3.944000            3.944000           15.776000
 Pt           -1.972000            3.944000           17.748000
 Pt           -1.972000            5.916000           15.776000
 Pt           -1.972000            7.888000          -13.804000
 Pt           -3.944000            7.888000          -11.832000
 Pt           -3.944000            9.860000           -9.860000
 Pt           -1.972000            9.860000          -11.832000
 Pt           -3.944000            9.860000            9.860000
 Pt           -3.944000            7.888000           11.832000
 Pt           -1.972000            7.888000           13.804000
 Pt           -1.972000            9.860000           11.832000
 Pt           -1.972000           11.832000           -9.860000
 Pt           -3.944000           11.832000           -7.888000
 Pt           -3.944000           13.804000           -5.916000
 Pt           -1.972000           13.804000           -7.888000
 Pt           -3.944000           13.804000            5.916000
 Pt           -3.944000           11.832000            7.888000
 Pt           -1.972000           11.832000            9.860000
 Pt           -1.972000           13.804000            7.888000
 Pt           -1.972000           15.776000           -5.916000
 Pt           -3.944000           15.776000           -3.944000
 Pt           -3.944000           17.748000           -1.972000
 Pt           -1.972000           17.748000           -3.944000
 Pt           -3.944000           17.748000            1.972000
 Pt           -3.944000           15.776000            3.944000
 Pt           -1.972000           15.776000            5.916000
 Pt           -1.972000           17.748000            3.944000
 Pt           -1.972000           19.720000           -1.972000
 Pt           -3.944000           19.720000            0.000000
 Pt           -1.972000           19.720000            1.972000
 Pt           -1.972000           21.692000            0.000000
 Pt            0.000000          -21.692000           -1.972000
 Pt            0.000000          -23.664000            0.000000
 Pt            0.000000          -21.692000            1.972000
 Pt            1.972000          -21.692000            0.000000
 Pt            0.000000          -17.748000           -5.916000
 Pt            0.000000          -19.720000           -3.944000
 Pt            1.972000          -19.720000           -1.972000
 Pt            1.972000          -17.748000           -3.944000
 Pt            1.972000          -19.720000            1.972000
 Pt            0.000000          -19.720000            3.944000
 Pt            0.000000          -17.748000            5.916000
 Pt            1.972000          -17.748000            3.944000
 Pt            0.000000          -13.804000           -9.860000
 Pt            0.000000          -15.776000           -7.888000
 Pt            1.972000          -15.776000           -5.916000
 Pt            1.972000          -13.804000           -7.888000
 Pt            1.972000          -15.776000            5.916000
 Pt            0.000000          -15.776000            7.888000
 Pt            0.000000          -13.804000            9.860000
 Pt            1.972000          -13.804000            7.888000
 Pt            0.000000           -9.860000          -13.804000
 Pt            0.000000          -11.832000          -11.832000
 Pt            1.972000          -11.832000           -9.860000
 Pt            1.972000           -9.860000          -11.832000
 Pt            1.972000          -11.832000            9.860000
 Pt            0.000000          -11.832000           11.832000
 Pt            0.000000           -9.860000           13.804000
 Pt            1.972000           -9.860000           11.832000
 Pt            0.000000           -5.916000          -17.748000
 Pt            0.000000           -7.888000          -15.776000
 Pt            1.972000           -7.888000          -13.804000
 Pt            1.972000           -5.916000          -15.776000
 Pt            1.972000           -7.888000           13.804000
 Pt            0.000000           -7.888000           15.776000
 Pt            0.000000           -5.916000           17.748000
 Pt            1.972000           -5.916000           15.776000
 Pt            0.000000           -1.972000          -21.692000
 Pt            0.000000           -3.944000          -19.720000
 Pt            1.972000           -3.944000          -17.748000
 Pt            1.972000           -1.972000          -19.720000
 Pt            1.972000           -3.944000           17.748000
 Pt            0.000000           -3.944000           19.720000
 Pt            0.000000           -1.972000           21.692000
 Pt            1.972000           -1.972000           19.720000
 Pt            0.000000            0.000000          -23.664000
 Pt            0.000000            1.972000          -21.692000
 Pt            1.972000            0.000000          -21.692000
 Pt            1.972000            1.972000          -19.720000
 Pt            0.000000            1.972000           21.692000
 Pt            1.972000            0.000000           21.692000
 Pt            1.972000            1.972000           19.720000
 Pt            0.000000            0.000000           23.664000
 Pt            0.000000            3.944000          -19.720000
 Pt            0.000000            5.916000          -17.748000
 Pt            1.972000            3.944000          -17.748000
 Pt            1.972000            5.916000          -15.776000
 Pt            0.000000            5.916000           17.748000
 Pt            1.972000            3.944000           17.748000
 Pt            1.972000            5.916000           15.776000
 Pt            0.000000            3.944000           19.720000
 Pt            0.000000            7.888000          -15.776000
 Pt            0.000000            9.860000          -13.804000
 Pt            1.972000            7.888000          -13.804000
 Pt            1.972000            9.860000          -11.832000
 Pt            0.000000            9.860000           13.804000
 Pt            1.972000            7.888000           13.804000
 Pt            1.972000            9.860000           11.832000
 Pt            0.000000            7.888000           15.776000
 Pt            0.000000           11.832000          -11.832000
 Pt            0.000000           13.804000           -9.860000
 Pt            1.972000           11.832000           -9.860000
 Pt            1.972000           13.804000           -7.888000
 Pt            0.000000           13.804000            9.860000
 Pt            1.972000           11.832000            9.860000
 Pt            1.972000           13.804000            7.888000
 Pt            0.000000           11.832000           11.832000
 Pt            0.000000           15.776000           -7.888000
 Pt            0.000000           17.748000           -5.916000
 Pt            1.972000           15.776000           -5.916000
 Pt            1.972000           17.748000           -3.944000
 Pt            0.000000           17.748000            5.916000
 Pt            1.972000           15.776000            5.916000
 Pt            1.972000           17.748000            3.944000
 Pt            0.000000           15.776000            7.888000
 Pt            0.000000           19.720000           -3.944000
 Pt            0.000000           21.692000           -1.972000
 Pt            1.972000           19.720000           -1.972000
 Pt            0.000000           21.692000            1.972000
 Pt            1.972000           19.720000            1.972000
 Pt            1.972000           21.692000            0.000000
 Pt            0.000000           19.720000            3.944000
 Pt            0.000000           23.664000            0.000000
 Pt            3.944000          -17.748000           -1.972000
 Pt            3.944000          -19.720000            0.000000
 Pt            3.944000          -17.748000            1.972000
 Pt            5.916000          -17.748000            0.000000
 Pt            3.944000          -13.804000           -5.916000
 Pt            3.944000          -15.776000           -3.944000
 Pt            5.916000          -15.776000           -1.972000
 Pt            5.916000          -13.804000           -3.944000
 Pt            5.916000          -15.776000            1.972000
 Pt            3.944000          -15.776000            3.944000
 Pt            3.944000          -13.804000            5.916000
 Pt            5.916000          -13.804000            3.944000
 Pt            3.944000           -9.860000           -9.860000
 Pt            3.944000          -11.832000           -7.888000
 Pt            5.916000          -11.832000           -5.916000
 Pt            5.916000           -9.860000           -7.888000
 Pt            5.916000          -11.832000            5.916000
 Pt            3.944000          -11.832000            7.888000
 Pt            3.944000           -9.860000            9.860000
 Pt            5.916000           -9.860000            7.888000
 Pt            3.944000           -5.916000          -13.804000
 Pt            3.944000           -7.888000          -11.832000
 Pt            5.916000           -7.888000           -9.860000
 Pt            5.916000           -5.916000          -11.832000
 Pt            5.916000           -7.888000            9.860000
 Pt            3.944000           -7.888000           11.832000
 Pt            3.944000           -5.916000           13.804000
 Pt            5.916000           -5.916000           11.832000
 Pt            3.944000           -1.972000          -17.748000
 Pt            3.944000           -3.944000          -15.776000
 Pt            5.916000           -3.944000          -13.804000
 Pt            5.916000           -1.972000          -15.776000
 Pt            5.916000           -3.944000           13.804000
 Pt            3.944000           -3.944000           15.776000
 Pt            3.944000           -1.972000           17.748000
 Pt            5.916000           -1.972000           15.776000
 Pt            3.944000            0.000000          -19.720000
 Pt            3.944000            1.972000          -17.748000
 Pt            5.916000            0.000000          -17.748000
 Pt            5.916000            1.972000          -15.776000
 Pt            3.944000            1.972000           17.748000
 Pt            5.916000            0.000000           17.748000
 Pt            5.916000            1.972000           15.776000
 Pt            3.944000            0.000000           19.720000
 Pt            3.944000            3.944000          -15.776000
 Pt            3.944000            5.916000          -13.804000
 Pt            5.916000            3.944000          -13.804000
 Pt            5.916000            5.916000          -11.832000
 Pt            3.944000            5.916000           13.804000
 Pt            5.916000            3.944000           13.804000
 Pt            5.916000            5.916000           11.832000
 Pt            3.944000            3.944000           15.776000
 Pt            3.944000            7.888000          -11.832000
 Pt            3.944000            9.860000           -9.860000
 Pt            5.916000            7.888000           -9.860000
 Pt            5.916000            9.860000           -7.888000
 Pt            3.944000            9.860000            9.860000
 Pt            5.916000            7.888000            9.860000
 Pt            5.916000            9.860000            7.888000
 Pt            3.944000            7.888000           11.832000
 Pt            3.944000           11.832000           -7.888000
 Pt            3.944000           13.804000           -5.916000
 Pt            5.916000           11.832000           -5.916000
 Pt            5.916000           13.804000           -3.944000
 Pt            3.944000           13.804000            5.916000
 Pt            5.916000           11.832000            5.916000
 Pt            5.916000           13.804000            3.944000
 Pt            3.944000           11.832000            7.888000
 Pt            3.944000           15.776000           -3.944000
 Pt            3.944000           17.748000           -1.972000
 Pt            5.916000           15.776000           -1.972000
 Pt            3.944000           17.748000            1.972000
 Pt            5.916000           15.776000            1.972000
 Pt            5.916000           17.748000            0.000000
 Pt            3.944000           15.776000            3.944000
 Pt            3.944000           19.720000            0.000000
 Pt            7.888000          -13.804000           -1.972000
 Pt            7.888000          -15.776000            0.000000
 Pt            7.888000          -13.804000            1.972000
 Pt            9.860000          -13.804000            0.000000
 Pt            7.888000           -9.860000           -5.916000
 Pt            7.888000          -11.832000           -3.944000
 Pt            9.860000          -11.832000           -1.972000
 Pt            9.860000           -9.860000           -3.944000
 Pt            9.860000          -11.832000            1.972000
 Pt            7.888000          -11.832000            3.944000
 Pt            7.888000           -9.860000            5.916000
 Pt            9.860000           -9.860000            3.944000
 Pt            7.888000           -5.916000           -9.860000
 Pt            7.888000           -7.888000           -7.888000
 Pt            9.860000           -7.888000           -5.916000
 Pt            9.860000           -5.916000           -7.888000
 Pt            9.860000           -7.888000            5.916000
 Pt            7.888000           -7.888000            7.888000
 Pt            7.888000           -5.916000            9.860000
 Pt            9.860000           -5.916000            7.888000
 Pt            7.888000           -1.972000          -13.804000
 Pt            7.888000           -3.944000          -11.832000
 Pt            9.860000           -3.944000           -9.860000
 Pt            9.860000           -1.972000          -11.832000
 Pt            9.860000           -3.944000            9.860000
 Pt            7.888000           -3.944000           11.832000
 Pt            7.888000           -1.972000           13.804000
 Pt            9.860000           -1.972000           11.832000
 Pt            7.888000            0.000000          -15.776000
 Pt            7.888000            1.972000          -13.804000
 Pt            9.860000            0.000000          -13.804000
 Pt            9.860000            1.972000          -11.832000
 Pt            7.888000            1.972000           13.804000
 Pt            9.860000            0.000000           13.804000
 Pt            9.860000            1.972000           11.832000
 Pt            7.888000            0.000000           15.776000
 Pt            7.888000            3.944000          -11.832000
 Pt            7.888000            5.916000           -9.860000
 Pt            9.860000            3.944000           -9.860000
 Pt            9.860000            5.916000           -7.888000
 Pt            7.888000            5.916000            9.860000
 Pt            9.860000            3.944000            9.860000
 Pt            9.860000            5.916000            7.888000
 Pt            7.888000            3.944000           11.832000
 Pt            7.888000            7.888000           -7.888000
 Pt            7.888000            9.860000           -5.916000
 Pt            9.860000            7.888000           -5.916000
 Pt            9.860000            9.860000           -3.944000
 Pt            7.888000            9.860000            5.916000
 Pt            9.860000            7.888000            5.916000
 Pt            9.860000            9.860000            3.944000
 Pt            7.888000            7.888000            7.888000
 Pt            7.888000           11.832000           -3.944000
 Pt            7.888000           13.804000           -1.972000
 Pt            9.860000           11.832000           -1.972000
 Pt            7.888000           13.804000            1.972000
 Pt            9.860000           11.832000            1.972000
 Pt            9.860000           13.804000            0.000000
 Pt            7.888000           11.832000            3.944000
 Pt            7.888000           15.776000            0.000000
 Pt           11.832000           -9.860000           -1.972000
 Pt           11.832000          -11.832000            0.000000
 Pt           11.832000           -9.860000            1.972000
 Pt           13.804000           -9.860000            0.000000
 Pt           11.832000           -5.916000           -5.916000
 Pt           11.832000           -7.888000           -3.944000
 Pt           13.804000           -7.888000           -1.972000
 Pt           13.804000           -5.916000           -3.944000
 Pt           13.804000           -7.888000            1.972000
 Pt           11.832000           -7.888000            3.944000
 Pt           11.832000           -5.916000            5.916000
 Pt           13.804000           -5.916000            3.944000
 Pt           11.832000           -1.972000           -9.860000
 Pt           11.832000           -3.944000           -7.888000
 Pt           13.804000           -3.944000           -5.916000
 Pt           13.804000           -1.972000           -7.888000
 Pt           13.804000           -3.944000            5.916000
 Pt           11.832000           -3.944000            7.888000
 Pt           11.832000           -1.972000            9.860000
 Pt           13.804000           -1.972000            7.888000
 Pt           11.832000            0.000000          -11.832000
 Pt           11.832000            1.972000           -9.860000
 Pt           13.804000            0.000000           -9.860000
 Pt           13.804000            1.972000           -7.888000
 Pt           11.832000            1.972000            9.860000
 Pt           13.804000            0.000000            9.860000
 Pt           13.804000            1.972000            7.888000
 Pt           11.832000            0.000000           11.832000
 Pt           11.832000            3.944000           -7.888000
 Pt           11.832000            5.916000           -5.916000
 Pt           13.804000            3.944000           -5.916000
 Pt           13.804000            5.916000           -3.944000
 Pt           11.832000            5.916000            5.916000
 Pt           13.804000            3.944000            5.916000
 Pt           13.804000            5.916000            3.944000
 Pt           11.832000            3.944000            7.888000
 Pt           11.832000            7.888000           -3.944000
 Pt           11.832000            9.860000           -1.972000
 Pt           13.804000            7.888000           -1.972000
 Pt           11.832000            9.860000            1.972000
 Pt           13.804000            7.888000            1.972000
 Pt           13.804000            9.860000            0.000000
 Pt           11.832000            7.888000            3.944000
 Pt           11.832000           11.832000            0.000000
 Pt           15.776000           -5.916000           -1.972000
 Pt           15.776000           -7.888000            0.000000
 Pt           15.776000           -5.916000            1.972000
 Pt           17.748000           -5.916000            0.000000
 Pt           15.776000           -1.972000           -5.916000
 Pt           15.776000           -3.944000           -3.944000
 Pt           17.748000           -3.944000           -1.972000
 Pt           17.748000           -1.972000           -3.944000
 Pt           17.748000           -3.944000            1.972000
 Pt           15.776000           -3.944000            3.944000
 Pt           15.776000           -1.972000            5.916000
 Pt           17.748000           -1.972000            3.944000
 Pt           15.776000            0.000000           -7.888000
 Pt           15.776000            1.972000           -5.916000
 Pt           17.748000            0.000000           -5.916000
 Pt           17.748000            1.972000           -3.944000
 Pt           15.776000            1.972000            5.916000
 Pt           17.748000            0.000000            5.916000
 Pt           17.748000            1.972000            3.944000
 Pt           15.776000            0.000000            7.888000
 Pt           15.776000            3.944000           -3.944000
 Pt           15.776000            5.916000           -1.972000
 Pt           17.748000            3.944000           -1.972000
 Pt           15.776000            5.916000            1.972000
 Pt           17.748000            3.944000            1.972000
 Pt           17.748000            5.916000            0.000000
 Pt           15.776000            3.944000            3.944000
 Pt           15.776000            7.888000            0.000000
 Pt           19.720000           -1.972000           -1.972000
 Pt           19.720000           -3.944000            0.000000
 Pt           19.720000           -1.972000            1.972000
 Pt           21.692000           -1.972000            0.000000
 Pt           19.720000            0.000000           -3.944000
 Pt           19.720000            1.972000           -1.972000
 Pt           21.692000            0.000000           -1.972000
 Pt           19.720000            1.972000            1.972000
 Pt           21.692000            0.000000            1.972000
 Pt           21.692000            1.972000            0.000000
 Pt           19.720000            0.000000            3.944000
 Pt           19.720000            3.944000            0.000000
 Pt           23.664000            0.000000            0.000000
