54
cscl_cao_r000
Ca        0.0000    0.0000    0.0000
O         1.2960    1.2960    1.2960
Ca        0.0000    0.0000    2.5920
O         1.2960    1.2960    3.8880
Ca        0.0000    0.0000    5.1840
O         1.2960    1.2960    6.4800
Ca        0.0000    2.5920    0.0000
O         1.2960    3.8880    1.2960
Ca        0.0000    2.5920    2.5920
O         1.2960    3.8880    3.8880
Ca        0.0000    2.5920    5.1840
O         1.2960    3.8880    6.4800
Ca        0.0000    5.1840    0.0000
O         1.2960    6.4800    1.2960
Ca        0.0000    5.1840    2.5920
O         1.2960    6.4800    3.8880
Ca        0.0000    5.1840    5.1840
O         1.2960    6.4800    6.4800
Ca        2.5920    0.0000    0.0000
O         3.8880    1.2960    1.2960
Ca        2.5920    0.0000    2.5920
O         3.8880    1.2960    3.8880
Ca        2.5920    0.0000    5.1840
O         3.8880    1.2960    6.4800
Ca        2.5920    2.5920    0.0000
O         3.8880    3.8880    1.2960
Ca        2.5920    2.5920    2.5920
O         3.8880    3.8880    3.8880
Ca        2.5920    2.5920    5.1840
O         3.8880    3.8880    6.4800
Ca        2.5920    5.1840    0.0000
O         3.8880    6.4800    1.2960
Ca        2.5920    5.1840    2.5920
O         3.8880    6.4800    3.8880
Ca        2.5920    5.1840    5.1840
O         3.8880    6.4800    6.4800
Ca        5.1840    0.0000    0.0000
O         6.4800    1.2960    1.2960
Ca        5.1840    0.0000    2.5920
O         6.4800    1.2960    3.8880
Ca        5.1840    0.0000    5.1840
O         6.4800    1.2960    6.4800
Ca        5.1840    2.5920    0.0000
O         6.4800    3.8880    1.2960
Ca        5.1840    2.5920    2.5920
O         6.4800    3.8880    3.8880
Ca        5.1840    2.5920    5.1840
O         6.4800    3.8880    6.4800
Ca        5.1840    5.1840    0.0000
O         6.4800    6.4800    1.2960
Ca        5.1840    5.1840    2.5920
O         6.4800    6.4800    3.8880
Ca        5.1840    5.1840    5.1840
O         6.4800    6.4800    6.4800
