32
Nanocluster
Pt    4.303200   10.058001    5.519400
Pt    5.532200    9.051200    3.205000
Pt    1.845400   12.071800   10.148200
Pt    3.074400   11.065001    7.833800
Pt    5.597800   11.509000    8.980600
Pt    6.826800   10.502000    6.666200
Pt    8.055600    9.495200    4.351800
Pt    9.284600    8.488199    2.037400
Pt   11.808000    8.932200    3.184200
Pt    9.350201   10.945999    7.813000
Pt   10.579200    9.939200    5.498600
Pt   13.102799   10.383200    6.645400
Pt   14.331599    9.376200    4.331000
Pt   16.855200    9.820200    5.477800
Pt    3.140000   13.522600   13.609400
Pt    4.369000   12.515800   11.295000
Pt    6.892400   12.959800   12.441799
Pt    8.121400   11.953000   10.127400
Pt    5.663600   13.966599   14.756201
Pt    8.187200   14.410600   15.903000
Pt    9.416000   13.403799   13.588600
Pt   10.710600   14.854601   17.049801
Pt   10.645000   12.396801   11.274199
Pt   11.873799   11.390000    8.959800
Pt   14.397400   11.834001   10.106601
Pt   15.626201   10.827200    7.792200
Pt   18.149799   11.271000    8.939000
Pt   11.939600   13.847800   14.735399
Pt   13.168401   12.840800   12.421000
Pt   15.692000   13.284800   13.567801
Pt   16.920799   12.278000   11.253400
Pt   14.463000   14.291800   15.882200
