168
water-0056
O         5.8200    0.2230    1.0450
H         6.3750   -0.4940    1.4360
H         5.4970    0.6700    1.8350
O         6.1620    2.5020    8.9930
H         5.2830    2.7780    8.7080
H         6.3540    2.0230    8.1350
O         7.5290    6.1500    6.6000
H         8.4220    5.9800    6.2140
H         7.1580    5.3280    6.1970
O        11.9360   10.6580    0.6470
H        11.7080   10.4250    1.5330
H        12.8890   10.7840    0.6820
O         2.3830    4.6030    9.3130
H         2.4830    3.8780    9.9010
H         1.8150    4.1660    8.6460
O         9.5180    0.1290    9.6800
H         9.0370    0.0250    8.8260
H         9.1230    0.9500    9.9820
O         9.0020    6.6350    0.6770
H         9.6130    6.8490   -0.0420
H         8.7770    7.5480    0.9070
O         5.8010    8.8370    3.6920
H         6.1070    9.1190    2.8120
H         6.6500    8.4150    3.9370
O         6.0960    7.5020   11.0910
H         6.4970    8.2240   10.5010
H         5.6390    8.0650   11.7800
O         1.5200    1.9770    1.9940
H         2.2220    2.3010    1.3720
H         0.7000    2.0280    1.4720
O         7.2930    3.6220    1.8350
H         7.9760    3.0790    2.2320
H         7.0430    3.1330    1.0700
O         1.1360    7.1390    2.2040
H         0.8610    6.3780    1.6600
H         0.3580    7.2690    2.7910
O        12.4000   13.2920    7.3500
H        11.8070   14.0550    7.1740
H        11.9200   12.5950    6.9230
O         9.6460    5.4240    5.0460
H         9.0270    5.7380    4.3150
H         9.5770    4.4590    4.9860
O         7.9510    1.8070   11.0340
H         7.2070    1.9800   10.3690
H         7.5720    1.0080   11.4690
O         4.3500   -1.1890   10.9480
H         5.0240   -0.6750   11.4410
H         3.5770   -0.8250   11.3590
O        -4.0760    6.2470    3.1930
H        -4.6550    5.4700    3.1080
H        -3.7390    6.3330    2.2880
O         6.5510    3.7480    5.7050
H         6.7500    2.8150    5.6570
H         5.7550    3.7630    5.1340
O         3.0900    3.0460    4.4670
H         2.5300    2.6470    3.8240
H         2.6400    3.8530    4.6550
O         7.1360    8.6410    6.3130
H         7.3210    7.6740    6.2340
H         6.4670    8.6960    7.0000
O         0.3190    5.6740    0.3900
H         0.0730    5.0190   -0.2210
H         1.1670    6.0270    0.0230
O         2.1090    6.8920   10.8200
H         2.2460    6.2140   10.0980
H         2.7510    7.5700   10.5760
O         7.9890    5.4710    9.9890
H         7.9140    5.8610   10.8830
H         7.1770    5.8250    9.5930
O         2.5020    7.4640    4.5570
H         2.2050    6.8530    5.2440
H         2.1000    6.9760    3.7950
O        10.8940    9.4010    6.9470
H        11.4820    9.5200    7.7210
H        10.4050    8.6760    7.3560
O         7.0930    9.5020    9.5630
H         7.7500    8.9040    9.1430
H         7.5660   10.1640   10.0770
O         5.3680    1.7050    3.6020
H         5.3050    0.8580    4.0350
H         4.6670    2.2330    4.0250
O         7.6480   10.1850    1.9230
H         8.1490    9.7260    2.5970
H         8.3460   10.5780    1.3730
O         2.9170   -1.6340    1.4060
H         3.0110   -1.2330    2.2570
H         3.2600   -2.5490    1.4400
O        -0.0650   11.7450    3.4480
H         0.3800   12.3890    2.8980
H         0.6950   11.2760    3.8060
O         8.9690    1.1990    3.5180
H         8.7170    0.2610    3.5760
H         9.7760    1.1570    3.0160
O        -0.7660    1.6740    0.5290
H        -0.5000    1.3960   -0.3570
H        -1.5290    2.2510    0.3300
O        -0.4060    8.9340    4.5130
H         0.3350    8.4170    4.8220
H        -0.5200    9.4580    5.3340
O         3.7510    8.0900    9.0950
H         4.2080    8.8020    9.5950
H         4.5050    7.4940    9.0480
O         1.9250   -1.8970    7.3070
H         1.6630   -1.3940    8.1060
H         2.1150   -2.7330    7.7840
O         4.1780   -0.6600    8.0470
H         3.6300   -1.3490    7.6610
H         4.4520   -1.0910    8.8830
O         2.6570   -1.5880    4.3910
H         2.4540   -1.3870    5.3110
H         2.5760   -2.5550    4.4040
O         3.3110    2.8720   11.9610
H         4.1070    2.4200   11.7250
H         3.6630    3.8140   12.0320
O        -1.7560    3.9360   -0.3700
H        -2.2970    3.7100   -1.1150
H        -2.1050    4.7850   -0.0750
O         3.5910    1.8010    7.3440
H         3.1410    1.8030    6.5060
H         3.6080    0.8770    7.6710
O        10.8280    8.3050   -0.3120
H        11.5620    7.7400   -0.0370
H        11.1390    9.1790   -0.0710
O        12.7730    5.5090    5.4420
H        11.8640    5.5480    5.7920
H        13.0570    4.7230    5.9500
O        -0.3070    4.2080    7.8570
H        -0.2980    3.5870    8.6190
H        -1.2250    4.0530    7.5780
O         9.3290   -0.4450   12.3680
H         9.2070   -0.6710   11.4360
H        10.2670   -0.1790   12.3410
O         5.1730   11.0660    4.7570
H         5.4890   10.1420    4.8970
H         4.2940   10.8250    4.4110
O        12.1470   10.1650    9.6580
H        11.2060   10.0590    9.9170
H        12.3180   10.9800   10.1290
O         8.6250   10.8270    7.3720
H         9.4800   10.5850    6.9740
H         8.2060    9.9820    7.1950
O        -2.2890    7.8340    9.0150
H        -2.5820    6.9400    8.8330
H        -1.5280    7.7450    9.6290
O         4.6200    7.6800    1.3690
H         4.4420    7.5630    2.3120
H         4.3020    6.8850    0.9450
O         4.9550    4.9630    0.5310
H         5.3030    5.6790   -0.0130
H         5.7190    4.8470    1.1230
O         0.5820   13.1500   -1.9770
H         1.5160   13.2360   -1.7700
H         0.6020   13.3600   -2.9390
O         8.8670    3.2670    8.3330
H         7.9600    3.2620    7.9790
H         8.6290    3.7230    9.1930
O         5.5540    6.0830    8.5860
H         5.8740    5.8400    7.7070
H         5.1110    5.3010    8.8500
O        10.1000    2.2080    6.0260
H         9.1900    1.9960    6.3300
H         9.9280    1.6990    5.2180
O         7.0940   12.9320    6.7430
H         7.5680   12.1640    7.1160
H         6.2700   12.5530    6.4910
O         8.9200    9.3970    4.1110
H         8.6240    8.8880    4.8690
H         9.8810    9.2630    4.0170
