19
TV:
 Cu       -1.8075000000      -1.8075000000       0.0000000000
 Cu       -1.8075000000       0.0000000000      -1.8075000000
 Cu       -3.6150000000       0.0000000000       0.0000000000
 Cu       -1.8075000000       0.0000000000       1.8075000000
 Cu       -1.8075000000       1.8075000000       0.0000000000
 Cu        0.0000000000      -1.8075000000      -1.8075000000
 Cu        0.0000000000      -3.6150000000       0.0000000000
 Cu        0.0000000000      -1.8075000000       1.8075000000
 Cu        1.8075000000      -1.8075000000       0.0000000000
 Cu        0.0000000000       0.0000000000      -3.6150000000
 Cu        0.0000000000       1.8075000000      -1.8075000000
 Cu        1.8075000000       0.0000000000      -1.8075000000
 Cu        0.0000000000       0.0000000000       0.0000000000
 Cu        0.0000000000       1.8075000000       1.8075000000
 Cu        1.8075000000       0.0000000000       1.8075000000
 Cu        1.8075000000       1.8075000000       0.0000000000
 Cu        0.0000000000       0.0000000000       3.6150000000
 Cu        0.0000000000       3.6150000000       0.0000000000
 Cu        3.6150000000       0.0000000000       0.0000000000
